-------------------------------------------------------
          Amber 16 PMEMD                              2016
          -------------------------------------------------------

  [-O]verwriting output

File Assignments:

 Here is the input file:

 &cntrl
    ntf        = 2         ,
    ntx        = 5         ,
    cut        = 11.0      ,
    nstlim     = 1000000   ,
    nmropt     = 0         ,
    ntpr       = 2000      ,
    ntp        = 0         ,
    irest      = 1         ,
    ntr        = 0         ,
    ntt        = 0         ,
    ntwr       = 1000000   ,
    dt         = 0.001     ,
    ig         = 19424     ,
    tol        = 5e-07     ,
    ntc        = 2         ,
    ntb        = 1         ,
    iwrap      = 1         ,
    ioutfm     = 1         ,
    ntwx       = 2000      ,
    imin       = 0
/
 &wt type='END'
/
 &ewald
  dsum_tol=0.000001,
/

--------------------------------------------------------------------------------
   1.  RESOURCE   USE:
--------------------------------------------------------------------------------

 getting box info from netcdf restart file
 NATOM  =   18751 NTYPES =      16 NBONH =   18149 MBONA  =     608
 NTHETH =    1439 MTHETA =     818 NPHIH =    2780 MPHIA  =    2058
 NHPARM =       0 NPARM  =       0 NNB   =   30184 NRES   =    5916
 NBONA  =     608 NTHETA =     818 NPHIA =    2058 NUMBND =      34
 NUMANG =      67 NPTRA  =      36 NATYP =      25 NPHB   =       1
 IFBOX  =       2 NMXRS  =      24 IFCAP =       0 NEXTRA =       0
 NCOPY  =       0

     BOX TYPE: TRUNCATED OCTAHEDRON

--------------------------------------------------------------------------------
   2.  CONTROL  DATA  FOR  THE  RUN
--------------------------------------------------------------------------------

default_name

General flags:
     imin    =       0, nmropt  =       0

Nature and format of input:
     ntx     =       5, irest   =       1, ntrx    =       1

Nature and format of output:
     ntxo    =       2, ntpr    =    2000, ntrx    =       1, ntwr    = 1000000
     iwrap   =       1, ntwx    =    2000, ntwv    =       0, ntwe    =       0
     ioutfm  =       1, ntwprt  =       0, idecomp =       0, rbornstat=      0

Potential function:
     ntf     =       2, ntb     =       1, igb     =       0, nsnb    =      25
     ipol    =       0, gbsa    =       0, iesp    =       0
     dielc   =   1.00000, cut     =  11.00000, intdiel =   1.00000

Frozen or restrained atoms:
     ibelly  =       0, ntr     =       0

Molecular dynamics:
     nstlim  =   1000000, nscm    =      1000, nrespa  =         1
     t       =   0.00000, dt      =   0.00100, vlimit  =  -1.00000

SHAKE:
     ntc     =       2, jfastw  =       0
     tol     =   0.00000

Ewald parameters:
     verbose =       0, ew_type =       0, nbflag  =       1, use_pme =       1
     vdwmeth =       1, eedmeth =       1, netfrc  =       1
     Box X =   62.360   Box Y =   62.360   Box Z =   62.360
     Alpha =  109.471   Beta  =  109.471   Gamma =  109.471
     NFFT1 =   64       NFFT2 =   64       NFFT3 =   64
     Cutoff=   11.000   Tol   =0.100E-05
     Ewald Coefficient =  0.28262
     Interpolation order =    4

--------------------------------------------------------------------------------
   3.  ATOMIC COORDINATES AND VELOCITIES
--------------------------------------------------------------------------------

default_name
 begin time read from input coords =   300.000 ps

 Number of triangulated 3-point waters found:     5840

     Sum of charges from parm topology file =  -0.00000645
     Forcing neutrality...

--------------------------------------------------------------------------------
   4.  RESULTS
 NSTEP =     2000   TIME(PS) =     302.000  TEMP(K) =   301.48  PRESS =     0.0
 Etot   =    -56556.5144  EKtot   =     11412.9492  EPtot      =    -67969.4636
 BOND   =       214.8449  ANGLE   =       619.8148  DIHED      =       785.1854
 1-4 NB =       280.3038  1-4 EEL =      2899.7582  VDWAALS    =     11643.6691
 EELEC  =    -84413.0397  EHBOND  =         0.0000  RESTRAINT  =         0.0000
 ------------------------------------------------------------------------------

      A V E R A G E S   O V E R     500 S T E P S

 NSTEP =  1000000   TIME(PS) =    1300.000  TEMP(K) =   299.76  PRESS =     0.0
 Etot   =    -56556.3957  EKtot   =     11348.1995  EPtot      =    -67904.5952
 BOND   =       222.2511  ANGLE   =       607.5103  DIHED      =       783.9362
 1-4 NB =       274.5078  1-4 EEL =      2923.3555  VDWAALS    =     11556.2971
 EELEC  =    -84272.4532  EHBOND  =         0.0000  RESTRAINT  =         0.0000
 ------------------------------------------------------------------------------

      R M S  F L U C T U A T I O N S

 NSTEP =  1000000   TIME(PS) =    1300.000  TEMP(K) =     1.82  PRESS =     0.0
 Etot   =         0.3304  EKtot   =        68.9087  EPtot      =        69.0681
 BOND   =        12.0364  ANGLE   =        19.3456  DIHED      =        10.8934
 1-4 NB =         7.0089  1-4 EEL =        20.6017  VDWAALS    =       131.4650
 EELEC  =       162.5998  EHBOND  =         0.0000  RESTRAINT  =         0.0000
 ------------------------------------------------------------------------------
