-------------------------------------------------------
          Amber 16 PMEMD                              2016
          -------------------------------------------------------

  [-O]verwriting output

File Assignments:

 Here is the input file:

 &cntrl
    nstlim     = 500000    ,
    temp0      = 293.0     ,
    gamma_ln   = 2.0       ,
    pres0      = 1.0       ,
    iwrap      = 1         ,
    dt         = 0.002     ,
    ig         = 54369     ,
    cut        = 10.5      ,
    ntpr       = 500       ,
    imin       = 0         ,
    ntx        = 5         ,
    ntp        = 1         ,
    tempi      = 293.0     ,
    ntr        = 0         ,
    ntt        = 3         ,
    ntwr       = 500000    ,
    ntc        = 2         ,
    ntb        = 2         ,
    ntwx       = 500       ,
    ntf        = 2         ,
    irest      = 1         ,
    nmropt     = 0         ,
    taup       = 2.0       ,
    ioutfm     = 1
/
 &wt type='END'
/
END

--------------------------------------------------------------------------------
   1.  RESOURCE   USE:
--------------------------------------------------------------------------------

 getting box info from netcdf restart file
 NATOM  =   11254 NTYPES =      25 NBONH =   10804 MBONA  =     454
 NTHETH =     980 MTHETA =     620 NPHIH =    2023 MPHIA  =    1926
 NHPARM =       0 NPARM  =       0 NNB   =   18669 NRES   =    3516
 NBONA  =     454 NTHETA =     620 NPHIA =    1926 NUMBND =      65
 NUMANG =     145 NPTRA  =     185 NATYP =      37 NPHB   =       1
 IFBOX  =       2 NMXRS  =      37 IFCAP =       0 NEXTRA =       0
 NCOPY  =       0

     BOX TYPE: TRUNCATED OCTAHEDRON

--------------------------------------------------------------------------------
   2.  CONTROL  DATA  FOR  THE  RUN
--------------------------------------------------------------------------------

default_name

General flags:
     imin    =       0, nmropt  =       0

Nature and format of input:
     ntx     =       5, irest   =       1, ntrx    =       1

Nature and format of output:
     ntxo    =       2, ntpr    =     500, ntrx    =       1, ntwr    =  500000
     iwrap   =       1, ntwx    =     500, ntwv    =       0, ntwe    =       0
     ioutfm  =       1, ntwprt  =       0, idecomp =       0, rbornstat=      0

Potential function:
     ntf     =       2, ntb     =       2, igb     =       0, nsnb    =      25
     ipol    =       0, gbsa    =       0, iesp    =       0
     dielc   =   1.00000, cut     =  10.50000, intdiel =   1.00000

Frozen or restrained atoms:
     ibelly  =       0, ntr     =       0

Molecular dynamics:
     nstlim  =    500000, nscm    =      1000, nrespa  =         1
     t       =   0.00000, dt      =   0.00200, vlimit  =  -1.00000

Langevin dynamics temperature regulation:
     ig      =   54369
     temp0   = 293.00000, tempi   = 293.00000, gamma_ln=   2.00000

Pressure regulation:
     ntp     =       1
     pres0   =   1.00000, comp    =  44.60000, taup    =   2.00000

SHAKE:
     ntc     =       2, jfastw  =       0
     tol     =   0.00001

Ewald parameters:
     verbose =       0, ew_type =       0, nbflag  =       1, use_pme =       1
     vdwmeth =       1, eedmeth =       1, netfrc  =       1
     Box X =   52.620   Box Y =   52.620   Box Z =   52.620
     Alpha =  109.471   Beta  =  109.471   Gamma =  109.471
     NFFT1 =   56       NFFT2 =   56       NFFT3 =   56
     Cutoff=   10.500   Tol   =0.100E-04
     Ewald Coefficient =  0.26121
     Interpolation order =    4

--------------------------------------------------------------------------------
   3.  ATOMIC COORDINATES AND VELOCITIES
--------------------------------------------------------------------------------

default_name
 begin time read from input coords =  2010.000 ps

 Number of triangulated 3-point waters found:     3457

     Sum of charges from parm topology file =  -0.00000003
     Forcing neutrality...

--------------------------------------------------------------------------------
   4.  RESULTS
 NSTEP =      500   TIME(PS) =    2011.000  TEMP(K) =   289.23  PRESS =  -114.2
 Etot   =    -28525.2076  EKtot   =      6597.6333  EPtot      =    -35122.8409
 BOND   =       160.9937  ANGLE   =       393.9089  DIHED      =       705.1705
 1-4 NB =       247.8848  1-4 EEL =      2999.6790  VDWAALS    =      4465.3783
 EELEC  =    -44095.8560  EHBOND  =         0.0000  RESTRAINT  =         0.0000
 EKCMT  =      3004.4533  VIRIAL  =      3281.1940  VOLUME     =    112190.6817
                                                    Density    =         1.0173
 ------------------------------------------------------------------------------

      A V E R A G E S   O V E R    1000 S T E P S

 NSTEP =   500000   TIME(PS) =    3010.000  TEMP(K) =   293.10  PRESS =    -0.4
 Etot   =    -28468.1038  EKtot   =      6685.8831  EPtot      =    -35153.9869
 BOND   =       166.7773  ANGLE   =       424.7472  DIHED      =       715.2063
 1-4 NB =       239.0626  1-4 EEL =      3026.4296  VDWAALS    =      4504.7352
 EELEC  =    -44230.9452  EHBOND  =         0.0000  RESTRAINT  =         0.0000
 EKCMT  =      3032.7348  VIRIAL  =      3033.7911  VOLUME     =    111940.5597
                                                    Density    =         1.0195
 ------------------------------------------------------------------------------

      R M S  F L U C T U A T I O N S

 NSTEP =   500000   TIME(PS) =    3010.000  TEMP(K) =     2.68  PRESS =   199.0
 Etot   =       111.0388  EKtot   =        61.2192  EPtot      =        89.8765
 BOND   =        10.6121  ANGLE   =        15.6083  DIHED      =         8.5707
 1-4 NB =         6.4642  1-4 EEL =        16.4337  VDWAALS    =        86.3029
 EELEC  =       140.3993  EHBOND  =         0.0000  RESTRAINT  =         0.0000
 EKCMT  =        41.3308  VIRIAL  =       483.4259  VOLUME     =       215.5768
                                                    Density    =         0.0020
 ------------------------------------------------------------------------------
